/*--------------------------------*- C++ -*----------------------------------*\
| =========                 |                                                 |
| \\      /  F ield         | OpenFOAM: The Open Source CFD Toolbox           |
|  \\    /   O peration     | Version:  v2112                                 |
|   \\  /    A nd           | Website:  www.openfoam.com                      |
|    \\/     M anipulation  |                                                 |
\*---------------------------------------------------------------------------*/
FoamFile
{
    version     2.0;
    format      ascii;
    class       volScalarField;
    object      kU;
}
// * * * * * * * * * * * * * * * * * * * * * * * * * * * * * * * * * * * * * //

dimensions      [0 2 -2 0 0 0 0];

internalField   uniform 0.375;
fk 0.5;

boundaryField
{
    inlet
    {
        type            fixedValue;
        value           uniform 0.375*fk;
    }

    outlet
    {
        type            zeroGradient;
    }

    upperWall
    {
        type            kqRWallFunction;
        value           uniform 0.375*fk;
    }

    lowerWall
    {
        type            kqRWallFunction;
        value           uniform 0.375*fk;
    }

    frontAndBack
    {
        type            empty;
    }
}


// ************************************************************************* //
